&NAMSNO
  static_filename  = "/scratch2/BMC/gsienkf/Tseganeh.Gichamo/ufsoi/static/ufs-land_C96_static_fields.nc"
  fv3_prefix       = "workg_T334_2016x1004.tile"
  vector_prefix    = "ens_forcing"
  rand_var         = "stc"
  PRINTRANK        = 0
  print_debg_info  = .false.
  IDIM = 96
  JDIM = 96
  NUM_TILES = 6
  IY = 2019
  IM = 10
  ID = 06
  IH = 00
  FH = 0.0
  DELTSFC = 6.0
  horz_len_scale = 120.0
  ver_len_scale = 800.
  temp_len_scale = 24.
  ens_size = 20
  t_len = 24
  t_indx = 2  
  n_surf_vars = 6
  vector_size = 18360
  forc_inp_path = "/scratch2/BMC/gsienkf/Tseganeh.Gichamo/ufsoi/test2/restart/"
  forc_inp_file = "C96_GDAS_forcing_2019-10-06.nc"
  std_dev_f = 0.4, 0.1, 30.0, 3.0, 0.075, 0.075, 0.4, 0.01
/
